42
Organic linker no. 53
C	-5.6805	-3.6489	-0.9081
C	-4.9684	-2.4461	-0.8841
C	-5.2076	-1.5122	0.1132
C	-6.1146	-1.8215	1.1233
C	-6.7327	-3.0955	1.1397
C	-4.0084	-2.1761	-1.8583
C	-4.5478	-0.2811	0.1023
C	-3.5518	-0.0422	-0.8475
C	-3.2924	-1.0172	-1.8235
C	-2.8289	1.162	-0.8335
C	-4.2875	1.9797	0.9411
C	-4.8845	0.7011	1.0299
C	-5.8256	0.3875	2.0514
C	-6.3999	-0.8517	2.107
H	-7.0844	-1.0795	2.9143
H	-6.0925	1.1294	2.7902
H	-3.8345	-2.8895	-2.6271
H	-2.5269	-0.8496	-2.5558
C	-2.4986	3.5401	0.0009
C	-3.174	4.7349	0.2641
C	-1.1358	3.5686	-0.3154
C	-2.5029	5.9649	0.1319
H	-4.1968	4.7141	0.5419
C	-0.4484	4.7905	-0.3509
H	-0.6227	2.662	-0.5164
C	-1.1357	5.9854	-0.154
H	-0.6178	6.9156	-0.2228
C	-7.2208	-5.3405	0.0219
C	-7.2584	-6.2439	1.096
C	-7.8941	-5.6224	-1.1972
C	-7.947	-7.4503	0.938
H	-6.7674	-6.0172	2.0261
C	-8.5994	-6.824	-1.3313
H	-7.8701	-4.92	-2.0028
C	-8.6166	-7.7362	-0.2677
H	-9.1473	-8.6496	-0.3816
N	-6.5434	-3.9752	0.143
N	-3.2325	2.1934	0.0563
O	-5.5094	-4.5701	-1.9885
O	-7.5876	-3.4525	2.229
O	-4.745	3.0412	1.783
O	-1.7159	1.3564	-1.7101
