44
Organic linker no. 28
C	0.182	3.001	0.520
N	1.535	3.020	0.878
C	2.274	1.831	0.885
C	1.660	0.623	0.534
C	0.307	0.604	0.175
C	-0.432	1.793	0.169
C	2.400	-0.566	0.541
C	1.785	-1.774	0.189
C	0.432	-1.793	-0.169
C	-0.307	-0.604	-0.176
C	-1.660	-0.623	-0.534
C	-2.399	0.566	-0.541
C	-1.785	1.774	-0.190
C	-0.182	-3.001	-0.520
N	-1.535	-3.020	-0.879
C	-2.274	-1.831	-0.886
O	-0.483	4.071	0.514
O	3.492	1.848	1.208
H	3.443	-0.551	0.817
H	2.356	-2.691	0.195
O	0.483	-4.071	-0.514
O	-3.492	-1.848	-1.208
H	-3.443	0.551	-0.818
H	-2.356	2.691	-0.195
C	-3.564	-4.368	-1.624
H	-4.134	-3.451	-1.629
C	-4.178	-5.576	-1.975
H	-5.222	-5.591	-2.252
C	-3.439	-6.765	-1.968
C	-2.085	-6.746	-1.610
H	-1.515	-7.663	-1.605
C	-1.471	-5.538	-1.258
H	-0.427	-5.523	-0.982
C	-2.211	-4.349	-1.265
C	3.564	4.368	1.623
H	4.134	3.451	1.629
C	4.178	5.576	1.975
H	5.222	5.591	2.251
C	3.439	6.765	1.968
C	2.086	6.746	1.609
H	1.515	7.663	1.604
C	1.472	5.538	1.258
H	0.428	5.523	0.981
C	2.211	4.349	1.265
