45
Organic linker no. 33
C	1.170	0.519	0.519
C	-0.519	-1.170	0.519
C	-0.519	0.519	-1.170
C	0.593	-0.593	1.086
H	0.957	-0.957	1.862
C	-1.086	-0.593	-0.593
H	-1.862	-0.957	-0.957
C	0.593	1.086	-0.593
H	0.957	1.862	-0.957
C	5.163	1.726	3.440
C	6.297	2.306	4.020
C	6.880	3.438	3.438
C	6.328	3.990	2.276
C	5.193	3.410	1.696
C	4.611	2.278	2.278
H	6.746	1.857	4.967
H	6.802	4.912	1.802
H	4.688	0.804	3.914
H	4.744	3.860	0.750
C	-1.726	3.440	-5.163
C	-2.306	4.020	-6.297
C	-3.438	3.438	-6.880
C	-3.990	2.276	-6.328
C	-3.410	1.696	-5.193
C	-2.278	2.278	-4.611
H	-1.857	4.967	-6.746
H	-4.912	1.802	-6.802
H	-0.804	3.914	-4.688
H	-3.860	0.750	-4.744
C	-1.696	-5.193	3.410
C	-2.276	-6.328	3.990
C	-3.438	-6.880	3.438
C	-4.020	-6.297	2.306
C	-3.440	-5.163	1.726
C	-2.278	-4.611	2.278
H	-1.802	-6.802	4.912
H	-4.967	-6.747	1.857
H	-0.750	-4.744	3.860
H	-3.914	-4.688	0.804
C	3.381	1.649	1.649
C	2.400	1.148	1.148
C	-1.649	1.649	-3.381
C	-1.148	1.148	-2.400
C	-1.148	-2.400	1.148
C	-1.649	-3.381	1.649
