40
Organic linker no. 39
C	-1.648	0.429	-3.438
H	-2.369	-0.192	-2.928
C	-1.877	0.828	-4.760
C	-0.943	1.633	-5.421
H	-1.120	1.941	-6.441
C	0.222	2.041	-4.760
C	0.452	1.642	-3.438
H	1.351	1.956	-2.928
C	-0.483	0.837	-2.777
C	-0.452	-1.642	3.438
H	-1.351	-1.956	2.928
C	-0.222	-2.040	4.760
C	0.943	-1.633	5.421
H	1.120	-1.941	6.441
C	1.878	-0.828	4.760
C	1.648	-0.430	3.438
H	2.369	0.192	2.928
C	0.483	-0.837	2.777
C	2.065	-0.149	-1.885
C	3.327	-0.621	-1.505
C	3.557	-1.019	-0.183
C	2.524	-0.945	0.760
C	1.262	-0.473	0.380
C	1.033	-0.075	-0.943
C	0.230	-0.399	1.322
C	-1.032	0.073	0.942
C	-1.262	0.471	-0.380
C	-0.229	0.397	-1.323
C	-2.065	0.147	1.885
C	-3.327	0.620	1.505
C	-3.557	1.018	0.182
C	-2.524	0.944	-0.760
H	1.888	0.158	-2.905
H	4.124	-0.678	-2.232
H	4.530	-1.383	0.110
H	2.701	-1.252	1.780
H	-1.888	-0.160	2.905
H	-4.124	0.677	2.232
H	-4.530	1.382	-0.111
H	-2.701	1.251	-1.780
