16
Organic linker no. 14
H	-3.381	-0.647	-0.990
C	0.244	1.802	0.348
H	-0.326	2.720	0.343
C	1.598	1.822	0.707
H	2.071	2.753	0.978
C	2.337	0.633	0.713
H	3.381	0.647	0.990
C	1.723	-0.575	0.362
H	2.293	-1.493	0.367
C	0.369	-0.595	0.004
C	-0.369	0.595	-0.003
C	-1.723	0.575	-0.362
C	-2.337	-0.633	-0.713
H	-2.071	-2.754	-0.978
C	-1.598	-1.822	-0.707
C	-0.244	-1.802	-0.348
