20
Organic linker no. 45
N	-1.3004	2.0232	0.0696
N	-0.1023	2.2757	-0.0671
C	0.3544	3.6723	-0.1089
C	1.7173	3.9594	-0.2643
C	-0.573	4.7166	0.0066
C	2.1527	5.2909	-0.3042
H	2.4253	3.1621	-0.3526
C	-0.1375	6.048	-0.0332
H	-1.6135	4.4973	0.1253
C	1.2253	6.3351	-0.1886
H	1.5578	7.3517	-0.219
C	-1.7572	0.6266	0.1114
C	-3.1201	0.3395	0.2668
C	-0.8299	-0.4177	-0.0042
C	-3.5555	-0.9919	0.3067
H	-3.8281	1.1369	0.355
C	-1.2653	-1.7491	0.0357
H	0.2107	-0.1985	-0.1228
C	-2.6282	-2.0362	0.1911
H	-2.9607	-3.0528	0.2216
