20
Organic linker no. 47
C	-7.5627	-0.1572	-0.0129
C	-6.1981	-0.1572	-0.0129
C	-5.4652	1.074	-0.0129
C	-6.1892	2.3058	-0.0184
C	-7.6215	2.2643	-0.0197
C	-8.2852	1.072	-0.0164
C	-4.0663	1.0969	-0.008
C	-5.4888	3.517	-0.0202
C	-4.0899	3.5398	-0.0145
C	-3.3659	2.3081	-0.0071
C	-1.9337	2.3498	0.0
H	-1.3879	1.3942	0.0066
C	-1.27	3.5421	0.001
C	-1.9925	4.7712	-0.0071
C	-3.3571	4.7711	-0.0145
H	-3.5086	0.1477	-0.0037
H	-8.1286	-1.1004	-0.0105
H	-8.1673	3.2199	-0.0243
H	-6.047	4.4659	-0.0244
H	-1.4264	5.7144	-0.006
