30
Organic linker no. 3
C	-4.934	1.130	-1.118
H	-5.504	2.047	-1.123
C	-3.581	1.149	-0.760
H	-3.107	2.081	-0.488
C	-2.842	-0.040	-0.753
C	-3.456	-1.248	-1.104
H	-2.886	-2.166	-1.099
C	-4.809	-1.267	-1.463
H	-5.283	-2.199	-1.734
C	-5.548	-0.078	-1.470
C	-0.614	-1.208	-0.351
H	-1.088	-2.140	-0.622
C	0.739	-1.189	0.007
H	1.309	-2.106	0.013
C	1.353	0.019	0.359
C	0.614	1.208	0.352
H	1.088	2.140	0.623
C	-0.739	1.189	-0.007
H	-1.310	2.106	-0.012
C	-1.353	-0.019	-0.358
C	3.456	1.248	1.105
H	2.885	2.165	1.099
C	4.809	1.267	1.463
H	5.282	2.199	1.734
C	5.548	0.078	1.470
C	4.934	-1.130	1.119
H	5.504	-2.047	1.124
C	3.581	-1.149	0.760
H	3.107	-2.081	0.489
C	2.842	0.040	0.753
