22
Organic linker no. 8
C	4.565	-0.218	-0.228
C	3.784	0.941	-0.135
C	2.389	0.842	-0.073
C	1.774	-0.416	-0.104
C	2.555	-1.574	-0.197
C	3.950	-1.475	-0.259
C	-2.389	-0.842	0.073
C	-3.784	-0.941	0.135
C	-1.775	0.416	0.104
N	0.348	-0.517	-0.042
N	-0.348	0.517	0.042
C	-4.565	0.218	0.228
H	-4.285	-1.965	0.109
H	-1.754	-1.785	-0.002
H	2.055	-2.598	-0.223
H	4.586	-2.418	-0.335
C	-3.950	1.475	0.259
C	-2.555	1.574	0.197
H	-4.586	2.418	0.335
H	1.754	1.785	0.002
H	-2.055	2.598	0.223
H	4.285	1.965	-0.109
