15
Organic linker no. 31
C	1.148	0.541	0.541
C	-0.541	-1.148	0.541
C	-0.541	0.541	-1.148
C	0.571	-0.571	1.109
H	0.935	-0.935	1.884
C	-1.109	-0.571	-0.571
H	-1.884	-0.935	-0.935
C	0.571	1.109	-0.571
H	0.935	1.884	-0.935
C	-1.663	-3.342	1.663
C	-1.162	-2.361	1.162
C	-1.663	1.663	-3.342
C	-1.162	1.162	-2.361
C	3.342	1.663	1.663
C	2.361	1.162	1.162
