58
Organic linker no. 29
C	-5.011	-0.605	0.001
O	-5.856	-1.540	0.001
N	-5.558	0.684	0.002
C	-4.715	1.802	0.001
C	-7.633	2.161	0.002
C	-9.023	2.332	0.002
C	-9.319	-0.075	0.002
C	-7.929	-0.246	0.002
C	-7.087	0.872	0.002
C	-2.779	0.342	0.001
C	-3.622	-0.776	0.001
C	-3.075	-2.065	0.001
C	-3.326	1.631	0.001
C	-9.866	1.214	0.002
H	-10.005	-0.985	0.002
H	-7.484	-1.296	0.002
H	-3.761	-2.975	0.001
C	9.865	-1.213	-0.001
C	0.547	-1.289	0.000
C	0.843	1.118	0.001
C	1.389	-0.171	0.000
C	1.093	-2.578	0.000
C	2.483	-2.748	0.000
C	3.326	-1.631	0.000
C	2.779	-0.342	0.000
C	3.622	0.776	0.000
C	5.011	0.605	-0.000
N	5.558	-0.684	-0.000
C	4.715	-1.802	-0.000
C	7.633	-2.160	-0.001
C	9.023	-2.331	-0.001
C	9.319	0.075	-0.001
C	7.929	0.246	-0.001
C	7.086	-0.872	-0.001
O	5.308	-2.913	-0.000
C	-0.843	-1.118	0.001
C	-1.389	0.171	0.001
C	-0.547	1.289	0.001
C	-1.685	-2.236	0.001
H	9.468	-3.381	-0.001
H	6.947	-3.071	-0.001
H	2.928	-3.798	-0.000
H	0.407	-3.488	0.000
H	-1.240	-3.285	0.001
O	-5.308	2.914	0.002
C	-2.483	2.748	0.001
H	-9.468	3.381	0.002
H	-6.947	3.071	0.002
H	-2.928	3.798	0.001
C	1.686	2.236	0.001
C	3.075	2.065	0.000
O	5.857	1.539	-0.000
C	-1.093	2.578	0.001
H	1.241	3.285	0.001
H	10.005	0.986	-0.001
H	3.761	2.975	0.000
H	7.484	1.296	-0.001
H	-0.407	3.488	0.001
