19
Metal linker no. 8
Al	-0.5508	0.3555	-0.1326
O	-2.4161	0.7411	0.2382
O	-0.9228	-0.7661	-1.6721
O	-0.1821	1.4749	1.4062
O	1.3137	-0.034	-0.5005
O	-0.7176	1.8002	-1.4068
O	-0.3848	-1.0908	1.1417
C	-3.281	-0.3974	0.1306
C	-2.0177	-1.6703	-1.4823
C	0.9143	2.3787	1.2195
C	2.178	1.1036	-0.3921
H	0.4374	-1.5585	0.9825
Al	-1.8307	-2.2948	0.9619
Al	0.7303	3.0031	-1.2263
O	-3.4074	-1.3077	1.2188
O	-1.8169	-2.9122	-0.8124
O	0.7158	3.6197	0.5475
O	2.307	2.0133	-1.4807
H	-1.5395	2.2703	-1.2473
