12
Metal linker no. 10
O	-0.1462	6.5561	7.7243
O	4.029	9.0838	6.8754
Ba	5.7694	7.786	8.6696
O	1.0523	7.388	12.5811
O	-0.9866	7.5888	10.9168
O	3.3015	5.0611	11.7659
O	4.1026	5.5503	8.6424
O	-0.124	4.4596	11.0948
Ba	1.5621	6.3589	9.9717
O	3.2278	8.5948	9.9989
O	2.0952	3.8891	8.6771
O	1.1766	9.7368	8.9419
